version 2
1
9
.tran 10n 1000n{return}{return}{return}.kicad adjustpaths{return}.save all{return}.probe alli
2
1
V(/V1V)
 
1
V(/V2V)
 
